# CIF file generated by openbabel 2.4.0, see http://openbabel.sf.net
data_I
_chemical_name_common 'lo.pdb'
_cell_length_a 15.06
_cell_length_b 15.06
_cell_length_c 15
_cell_angle_alpha 90
_cell_angle_beta 90
_cell_angle_gamma 60
_space_group_name_H-M_alt 'P 1'
_space_group_name_Hall 'P 1'
loop_
    _symmetry_equiv_pos_as_xyz
    x,y,z
loop_
    _atom_site_label
    _atom_site_type_symbol
    _atom_site_fract_x
    _atom_site_fract_y
    _atom_site_fract_z
    _atom_site_occupancy
    Au0     Au   0.53360   0.27848   0.38140   1.000
    Au1     Au   0.60029   0.34511   0.21827   1.000
    Au2     Au   0.53362   0.47844   0.38140   1.000
    Au3     Au   0.60027   0.54515   0.21827   1.000
    Au4     Au   0.53364   0.67841   0.38140   1.000
    Au5     Au   0.60022   0.74511   0.21827   1.000
    Au6     Au   0.53366   0.87837   0.38140   1.000
    Au7     Au   0.60034   0.94500   0.21827   1.000
    Au8     Au   0.53362   0.07844   0.38140   1.000
    Au9     Au   0.60031   0.14507   0.21827   1.000
    Au10    Au   0.73367   0.27848   0.38140   1.000
    Au11    Au   0.80029   0.34511   0.21827   1.000
    Au12    Au   0.73369   0.47844   0.38140   1.000
    Au13    Au   0.80033   0.54515   0.21827   1.000
    Au14    Au   0.73364   0.67841   0.38140   1.000
    Au15    Au   0.80029   0.74511   0.21827   1.000
    Au16    Au   0.73366   0.87837   0.38140   1.000
    Au17    Au   0.80034   0.94500   0.21827   1.000
    Au18    Au   0.73362   0.07844   0.38140   1.000
    Au19    Au   0.80031   0.14507   0.21827   1.000
    Au20    Au   0.93354   0.27848   0.38140   1.000
    Au21    Au   0.00022   0.34511   0.21827   1.000
    Au22    Au   0.93355   0.47844   0.38140   1.000
    Au23    Au   0.00020   0.54515   0.21827   1.000
    Au24    Au   0.93351   0.67841   0.38140   1.000
    Au25    Au   0.00015   0.74511   0.21827   1.000
    Au26    Au   0.93366   0.87837   0.38140   1.000
    Au27    Au   0.00021   0.94500   0.21827   1.000
    Au28    Au   0.93362   0.07844   0.38140   1.000
    Au29    Au   0.00018   0.14507   0.21827   1.000
    Au30    Au   0.13354   0.27848   0.38140   1.000
    Au31    Au   0.20022   0.34511   0.21827   1.000
    Au32    Au   0.13355   0.47844   0.38140   1.000
    Au33    Au   0.20020   0.54515   0.21827   1.000
    Au34    Au   0.13351   0.67841   0.38140   1.000
    Au35    Au   0.20015   0.74511   0.21827   1.000
    Au36    Au   0.13359   0.87837   0.38140   1.000
    Au37    Au   0.20021   0.94500   0.21827   1.000
    Au38    Au   0.13356   0.07844   0.38140   1.000
    Au39    Au   0.20024   0.14507   0.21827   1.000
    Au40    Au   0.33354   0.27848   0.38140   1.000
    Au41    Au   0.40022   0.34511   0.21827   1.000
    Au42    Au   0.33362   0.47844   0.38140   1.000
    Au43    Au   0.40020   0.54515   0.21827   1.000
    Au44    Au   0.33357   0.67841   0.38140   1.000
    Au45    Au   0.40022   0.74511   0.21827   1.000
    Au46    Au   0.33359   0.87837   0.38140   1.000
    Au47    Au   0.40028   0.94500   0.21827   1.000
    Au48    Au   0.33356   0.07844   0.38140   1.000
    Au49    Au   0.40024   0.14507   0.21827   1.000
    He50    He   0.26837   0.21637   0.52000   1.000
    He51    He   0.27744   0.61032   0.49867   1.000
    He52    He   0.47319   0.61377   0.49887   1.000
    He53    He   0.80988   0.05912   0.49893   1.000
    He54    He   0.66926   0.80438   0.49720   1.000
    He55    He   0.06155   0.61607   0.49980   1.000
    He56    He   0.08788   0.80300   0.50080   1.000
    He57    He   0.25449   0.81519   0.50107   1.000
    He58    He   0.45611   0.80783   0.50153   1.000
    He59    He   0.86621   0.80967   0.49987   1.000
    He60    He   0.23350   0.07575   0.51453   1.000
    He61    He   0.07053   0.06878   0.50880   1.000
    He62    He   0.05177   0.22143   0.49873   1.000
    He63    He   0.44479   0.23194   0.49687   1.000
    He64    He   0.67060   0.20686   0.49767   1.000
    He65    He   0.85847   0.21162   0.49793   1.000
    He66    He   0.85942   0.43228   0.49840   1.000
    He67    He   0.06782   0.40606   0.49920   1.000
    He68    He   0.26063   0.40729   0.49953   1.000
    He69    He   0.46452   0.41411   0.49960   1.000
    He70    He   0.66739   0.40852   0.50000   1.000
    He71    He   0.67669   0.59629   0.50113   1.000
    He72    He   0.85966   0.61960   0.50107   1.000
    He73    He   0.47916   0.95895   0.49413   1.000
    He74    He   0.43994   0.07537   0.51173   1.000
    He75    He   0.61550   0.06011   0.51213   1.000
